# generated using pymatgen
data_Si7H2O15
_symmetry_space_group_name_H-M   'P 1'
_cell_length_a   34.60850121
_cell_length_b   34.61039952
_cell_length_c   60.90911308
_cell_angle_alpha   90.00000000
_cell_angle_beta   45.00674678
_cell_angle_gamma   59.99402408
_symmetry_Int_Tables_number   1
_chemical_formula_structural   Si7H2O15
_chemical_formula_sum   'Si168 H48 O360'
_cell_volume   36480.8964293
_cell_formula_units_Z   24
loop_
 _symmetry_equiv_pos_site_id
 _symmetry_equiv_pos_as_xyz
  1  'x, y, z'
loop_
 _atom_site_type_symbol
 _atom_site_label
 _atom_site_symmetry_multiplicity
 _atom_site_fract_x
 _atom_site_fract_y
 _atom_site_fract_z
 _atom_site_occupancy
  O  O1  1  0.398104  0.101854  0.156982  1
  O  O2  1  0.648181  0.250045  0.439591  1
  O  O3  1  0.953493  0.148223  0.276050  1
  O  O4  1  0.101669  0.250032  0.276078  1
  O  O5  1  0.398176  0.000000  0.156953  1
  O  O6  1  0.000000  0.148224  0.357807  1
  O  O7  1  0.851675  0.000000  0.357851  1
  O  O8  1  0.648100  0.101867  0.439647  1
  O  O9  1  0.398180  0.250029  0.439600  1
  O  O10  1  0.101744  0.148212  0.276030  1
  O  O11  1  0.851659  0.250038  0.276072  1
  O  O12  1  0.851742  0.148223  0.357820  1
  O  O13  1  0.546371  0.101847  0.439618  1
  O  O14  1  0.345900  0.077049  0.203113  1
  O  O15  1  0.633787  0.327060  0.435419  1
  O  O16  1  0.749898  0.327059  0.342109  1
  O  O17  1  0.866137  0.210844  0.342085  1
  O  O18  1  0.962032  0.327046  0.342129  1
  O  O19  1  0.345900  0.327048  0.435446  1
  O  O20  1  0.962108  0.210839  0.342077  1
  O  O21  1  0.633817  0.077046  0.373557  1
  O  O22  1  0.749901  0.077063  0.373585  1
  O  O23  1  0.537748  0.039223  0.512563  1
  O  O24  1  0.866046  0.173028  0.280248  1
  O  O25  1  0.749941  0.173021  0.373555  1
  O  O26  1  0.633700  0.289243  0.373582  1
  O  O27  1  0.537815  0.173027  0.373553  1
  O  O28  1  0.153945  0.173004  0.280228  1
  O  O29  1  0.537730  0.289231  0.373596  1
  O  O30  1  0.633721  0.039237  0.435471  1
  O  O31  1  0.367276  0.135420  0.209146  1
  O  O32  1  0.749975  0.247256  0.412190  1
  O  O33  1  0.888046  0.247252  0.301231  1
  O  O34  1  0.005454  0.247247  0.301229  1
  O  O35  1  0.367374  0.247236  0.412197  1
  O  O36  1  0.611771  0.135447  0.414462  1
  O  O37  1  0.494393  0.002827  0.506538  1
  O  O38  1  0.132471  0.002801  0.506551  1
  O  O39  1  0.749861  0.252829  0.303475  1
  O  O40  1  0.888076  0.114634  0.303446  1
  O  O41  1  0.611787  0.252833  0.414437  1
  O  O42  1  0.494377  0.252836  0.414454  1
  O  O43  1  0.132579  0.114617  0.303420  1
  O  O44  1  0.132480  0.252808  0.303478  1
  O  O45  1  0.749876  0.002834  0.412246  1
  O  O46  1  0.611825  0.002814  0.412216  1
  O  O47  1  0.993197  0.072870  0.230832  1
  O  O48  1  0.249880  0.177202  0.230848  1
  O  O49  1  0.610988  0.322877  0.484811  1
  O  O50  1  0.993251  0.183852  0.289338  1
  O  O51  1  0.993194  0.322875  0.289378  1
  O  O52  1  0.888968  0.183856  0.373141  1
  O  O53  1  0.610992  0.072868  0.342497  1
  O  O54  1  0.645623  0.177218  0.426315  1
  O  O55  1  0.249965  0.072858  0.230805  1
  O  O56  1  0.888855  0.177196  0.230853  1
  O  O57  1  0.249972  0.322854  0.484825  1
  O  O58  1  0.854226  0.322861  0.289356  1
  O  O59  1  0.854224  0.072870  0.342510  1
  O  O60  1  0.506660  0.177201  0.426301  1
  O  O61  1  0.610883  0.066215  0.484873  1
  O  O62  1  0.506580  0.316239  0.426334  1
  O  O63  1  0.610864  0.316222  0.342528  1
  O  O64  1  0.506606  0.066225  0.484850  1
  O  O65  1  0.499986  0.148209  0.357820  1
  O  O66  1  0.648199  0.000000  0.357827  1
  O  O67  1  0.398092  0.601866  0.156990  1
  O  O68  1  0.648092  0.351864  0.357846  1
  O  O69  1  0.953471  0.648231  0.276054  1
  O  O70  1  0.398085  0.351863  0.439644  1
  O  O71  1  0.000000  0.648191  0.357798  1
  O  O72  1  0.648195  0.500029  0.357822  1
  O  O73  1  0.648095  0.601864  0.439640  1
  O  O74  1  0.953496  0.398221  0.276055  1
  O  O75  1  0.398184  0.500035  0.156959  1
  O  O76  1  0.101753  0.648195  0.276024  1
  O  O77  1  0.546342  0.351865  0.439618  1
  O  O78  1  0.851735  0.648215  0.357816  1
  O  O79  1  0.851663  0.500038  0.357849  1
  O  O80  1  0.546359  0.601845  0.439615  1
  O  O81  1  0.851760  0.398203  0.276031  1
  O  O82  1  0.345895  0.577055  0.203120  1
  O  O83  1  0.633811  0.577037  0.373552  1
  O  O84  1  0.749894  0.577059  0.373578  1
  O  O85  1  0.866153  0.460826  0.280197  1
  O  O86  1  0.866044  0.423030  0.342118  1
  O  O87  1  0.749958  0.423007  0.342094  1
  O  O88  1  0.633708  0.539238  0.435471  1
  O  O89  1  0.367266  0.635429  0.209153  1
  O  O90  1  0.367372  0.497246  0.209116  1
  O  O91  1  0.611764  0.385449  0.412219  1
  O  O92  1  0.367267  0.385424  0.412245  1
  O  O93  1  0.749995  0.497232  0.303426  1
  O  O94  1  0.611769  0.635436  0.414454  1
  O  O95  1  0.888039  0.497252  0.303456  1
  O  O96  1  0.888056  0.614641  0.303446  1
  O  O97  1  0.132584  0.614601  0.303416  1
  O  O98  1  0.749866  0.502833  0.412244  1
  O  O99  1  0.888090  0.364623  0.301214  1
  O  O100  1  0.611811  0.502815  0.412218  1
  O  O101  1  0.993165  0.572887  0.230836  1
  O  O102  1  0.888989  0.433833  0.230796  1
  O  O103  1  0.645626  0.427211  0.373161  1
  O  O104  1  0.249865  0.427210  0.484862  1
  O  O105  1  0.611007  0.572857  0.342481  1
  O  O106  1  0.993255  0.433847  0.230820  1
  O  O107  1  0.249977  0.572846  0.230805  1
  O  O108  1  0.888866  0.427202  0.373182  1
  O  O109  1  0.506651  0.427215  0.484833  1
  O  O110  1  0.854218  0.572865  0.342503  1
  O  O111  1  0.610868  0.566231  0.484874  1
  O  O112  1  0.506592  0.566233  0.484855  1
  O  O113  1  0.499990  0.398220  0.156944  1
  O  O114  1  -0.000000  0.351845  0.357857  1
  O  O115  1  0.648169  0.750040  0.439584  1
  O  O116  1  0.648081  0.851880  0.357842  1
  O  O117  1  0.101659  0.750025  0.276084  1
  O  O118  1  0.398105  0.851853  0.439622  1
  O  O119  1  0.953501  0.898222  0.276060  1
  O  O120  1  0.398203  0.750022  0.439584  1
  O  O121  1  0.851655  0.750046  0.276070  1
  O  O122  1  0.546346  0.851859  0.439607  1
  O  O123  1  0.851763  0.898207  0.276036  1
  O  O124  1  0.633791  0.827049  0.435410  1
  O  O125  1  0.749890  0.827065  0.342108  1
  O  O126  1  0.866127  0.710840  0.342088  1
  O  O127  1  0.962018  0.827036  0.342134  1
  O  O128  1  0.345907  0.827043  0.435435  1
  O  O129  1  0.962118  0.710814  0.342071  1
  O  O130  1  0.866155  0.960832  0.280205  1
  O  O131  1  0.537808  0.923022  0.512543  1
  O  O132  1  0.153954  0.922994  0.512553  1
  O  O133  1  0.866020  0.673045  0.280252  1
  O  O134  1  0.749934  0.673015  0.373549  1
  O  O135  1  0.633699  0.789251  0.373569  1
  O  O136  1  0.537840  0.673013  0.373533  1
  O  O137  1  0.153942  0.672993  0.280229  1
  O  O138  1  0.537747  0.789229  0.373572  1
  O  O139  1  0.866049  0.923031  0.342122  1
  O  O140  1  0.749963  0.923005  0.342096  1
  O  O141  1  0.367358  0.997242  0.209110  1
  O  O142  1  0.749968  0.747243  0.412189  1
  O  O143  1  0.611761  0.885448  0.412214  1
  O  O144  1  0.888031  0.747256  0.301238  1
  O  O145  1  0.005453  0.747233  0.301229  1
  O  O146  1  0.367271  0.885421  0.412230  1
  O  O147  1  0.367385  0.747228  0.412190  1
  O  O148  1  0.749996  0.997240  0.303432  1
  O  O149  1  0.888047  0.997256  0.303461  1
  O  O150  1  0.132600  0.864603  0.506522  1
  O  O151  1  0.749849  0.752851  0.303468  1
  O  O152  1  0.611795  0.752826  0.414418  1
  O  O153  1  0.494409  0.752823  0.414427  1
  O  O154  1  0.132463  0.752799  0.303488  1
  O  O155  1  0.888091  0.864625  0.301219  1
  O  O156  1  0.249868  0.677204  0.230857  1
  O  O157  1  0.889000  0.933831  0.230802  1
  O  O158  1  0.610968  0.822868  0.484808  1
  O  O159  1  0.645622  0.927219  0.373163  1
  O  O160  1  0.993246  0.683843  0.289338  1
  O  O161  1  0.993191  0.822870  0.289383  1
  O  O162  1  0.249880  0.927200  0.484850  1
  O  O163  1  0.888975  0.683832  0.373134  1
  O  O164  1  0.645609  0.677217  0.426307  1
  O  O165  1  0.993268  0.933841  0.230824  1
  O  O166  1  0.888840  0.677212  0.230852  1
  O  O167  1  0.249988  0.822842  0.484819  1
  O  O168  1  0.888864  0.927193  0.373188  1
  O  O169  1  0.854231  0.822861  0.289358  1
  O  O170  1  0.506650  0.927206  0.484826  1
  O  O171  1  0.506670  0.677195  0.426287  1
  O  O172  1  0.506593  0.816235  0.426313  1
  O  O173  1  0.610859  0.816236  0.342516  1
  O  O174  1  0.499965  0.898210  0.156943  1
  O  O175  1  0.148204  0.250002  0.439588  1
  O  O176  1  0.453525  0.148172  0.276049  1
  O  O177  1  0.601669  0.250010  0.276080  1
  O  O178  1  0.351653  0.000000  0.357839  1
  O  O179  1  0.148089  0.101841  0.439631  1
  O  O180  1  0.898190  0.250030  0.439584  1
  O  O181  1  0.601763  0.148179  0.276036  1
  O  O182  1  0.351706  0.249989  0.276068  1
  O  O183  1  0.351775  0.148166  0.357820  1
  O  O184  1  0.046338  0.101838  0.439614  1
  O  O185  1  0.462039  0.077009  0.203123  1
  O  O186  1  0.133839  0.327003  0.435405  1
  O  O187  1  0.249945  0.327015  0.342100  1
  O  O188  1  0.366169  0.210788  0.342086  1
  O  O189  1  0.462033  0.327016  0.342128  1
  O  O190  1  0.845907  0.327062  0.435438  1
  O  O191  1  0.462119  0.210808  0.342085  1
  O  O192  1  0.133790  0.077024  0.373550  1
  O  O193  1  0.249890  0.077041  0.373570  1
  O  O194  1  0.037728  0.039220  0.512562  1
  O  O195  1  0.366076  0.172984  0.280248  1
  O  O196  1  0.249970  0.172977  0.373553  1
  O  O197  1  0.133737  0.289200  0.373569  1
  O  O198  1  0.037824  0.173015  0.373535  1
  O  O199  1  0.653957  0.172988  0.280230  1
  O  O200  1  0.037744  0.289228  0.373586  1
  O  O201  1  0.133687  0.039223  0.435465  1
  O  O202  1  0.250010  0.247198  0.412189  1
  O  O203  1  0.388085  0.247203  0.301231  1
  O  O204  1  0.505471  0.247206  0.301227  1
  O  O205  1  0.867370  0.247260  0.412187  1
  O  O206  1  0.111762  0.135424  0.414448  1
  O  O207  1  0.994387  0.002809  0.506539  1
  O  O208  1  0.632486  0.002791  0.506555  1
  O  O209  1  0.249899  0.252790  0.303468  1
  O  O210  1  0.388102  0.114589  0.303447  1
  O  O211  1  0.111830  0.252787  0.414421  1
  O  O212  1  0.994404  0.252815  0.414432  1
  O  O213  1  0.632584  0.114616  0.303435  1
  O  O214  1  0.632478  0.252800  0.303482  1
  O  O215  1  0.249851  0.002808  0.412235  1
  O  O216  1  0.111778  0.002809  0.412217  1
  O  O217  1  0.493208  0.072824  0.230835  1
  O  O218  1  0.749876  0.177192  0.230850  1
  O  O219  1  0.111013  0.322841  0.484806  1
  O  O220  1  0.493280  0.183798  0.289341  1
  O  O221  1  0.493206  0.322836  0.289373  1
  O  O222  1  0.388996  0.183811  0.373144  1
  O  O223  1  0.110966  0.072863  0.342488  1
  O  O224  1  0.145627  0.177185  0.426306  1
  O  O225  1  0.749984  0.072833  0.230814  1
  O  O226  1  0.388889  0.177161  0.230852  1
  O  O227  1  0.749980  0.322858  0.484817  1
  O  O228  1  0.354271  0.322813  0.289344  1
  O  O229  1  0.354234  0.072824  0.342501  1
  O  O230  1  0.006656  0.177186  0.426286  1
  O  O231  1  0.110859  0.066210  0.484864  1
  O  O232  1  0.006616  0.316202  0.426321  1
  O  O233  1  0.110897  0.316201  0.342518  1
  O  O234  1  0.006576  0.066212  0.484849  1
  O  O235  1  0.148151  -0.000000  0.357826  1
  O  O236  1  0.499880  0.101821  0.156993  1
  O  O237  1  0.601677  0.500023  0.156983  1
  O  O238  1  0.148140  0.351818  0.357834  1
  O  O239  1  0.453484  0.648203  0.276065  1
  O  O240  1  0.898108  0.351854  0.439635  1
  O  O241  1  0.148217  0.499993  0.357801  1
  O  O242  1  0.148107  0.601833  0.439624  1
  O  O243  1  0.453515  0.398186  0.276047  1
  O  O244  1  0.601762  0.398195  0.156954  1
  O  O245  1  0.601761  0.648185  0.276028  1
  O  O246  1  0.046393  0.351813  0.439602  1
  O  O247  1  0.351759  0.648178  0.357830  1
  O  O248  1  0.351670  0.500005  0.357845  1
  O  O249  1  0.046378  0.601814  0.439597  1
  O  O250  1  0.351786  0.398170  0.276017  1
  O  O251  1  0.462041  0.577022  0.203125  1
  O  O252  1  0.462118  0.460823  0.203105  1
  O  O253  1  0.133821  0.577009  0.373536  1
  O  O254  1  0.249915  0.577027  0.373565  1
  O  O255  1  0.366159  0.460802  0.280197  1
  O  O256  1  0.366060  0.422993  0.342110  1
  O  O257  1  0.249986  0.422971  0.342074  1
  O  O258  1  0.133722  0.539206  0.435454  1
  O  O259  1  0.505476  0.497217  0.209129  1
  O  O260  1  0.111816  0.385398  0.412205  1
  O  O261  1  0.867274  0.385446  0.412244  1
  O  O262  1  0.250007  0.497205  0.303415  1
  O  O263  1  0.111787  0.635409  0.414435  1
  O  O264  1  0.388068  0.497216  0.303447  1
  O  O265  1  0.388100  0.614591  0.303452  1
  O  O266  1  0.632602  0.614611  0.303417  1
  O  O267  1  0.249871  0.502802  0.412235  1
  O  O268  1  0.388109  0.364591  0.301204  1
  O  O269  1  0.111836  0.502781  0.412195  1
  O  O270  1  0.493200  0.572848  0.230841  1
  O  O271  1  0.389000  0.433821  0.230793  1
  O  O272  1  0.145665  0.427165  0.373144  1
  O  O273  1  0.749885  0.427208  0.484859  1
  O  O274  1  0.111008  0.572832  0.342470  1
  O  O275  1  0.493273  0.433814  0.230815  1
  O  O276  1  0.749988  0.572841  0.230799  1
  O  O277  1  0.388864  0.427173  0.373181  1
  O  O278  1  0.006693  0.427163  0.484818  1
  O  O279  1  0.354235  0.572828  0.342510  1
  O  O280  1  0.110864  0.566215  0.484862  1
  O  O281  1  0.006611  0.566196  0.484832  1
  O  O282  1  0.500005  0.648199  0.357805  1
  O  O283  1  0.499862  0.601845  0.157002  1
  O  O284  1  0.499865  0.351830  0.357859  1
  O  O285  1  0.601669  0.000000  0.156982  1
  O  O286  1  0.148190  0.750005  0.439595  1
  O  O287  1  0.148079  0.851841  0.357859  1
  O  O288  1  0.601667  0.750016  0.276065  1
  O  O289  1  0.898092  0.851833  0.439641  1
  O  O290  1  0.453468  0.898199  0.276052  1
  O  O291  1  0.601747  0.898175  0.156952  1
  O  O292  1  0.898185  0.750003  0.439583  1
  O  O293  1  0.351641  0.750014  0.276097  1
  O  O294  1  0.046345  0.851821  0.439625  1
  O  O295  1  -0.000000  0.851834  0.357869  1
  O  O296  1  0.351724  0.898190  0.276031  1
  O  O297  1  0.462100  0.960811  0.203101  1
  O  O298  1  0.133806  0.827013  0.435419  1
  O  O299  1  0.249870  0.827048  0.342131  1
  O  O300  1  0.366136  0.710809  0.342101  1
  O  O301  1  0.462033  0.827022  0.342114  1
  O  O302  1  0.845902  0.827033  0.435437  1
  O  O303  1  0.462120  0.710810  0.342080  1
  O  O304  1  0.366114  0.960814  0.280201  1
  O  O305  1  0.037836  0.923002  0.512542  1
  O  O306  1  0.653946  0.922982  0.512552  1
  O  O307  1  0.366037  0.672998  0.280267  1
  O  O308  1  0.249963  0.672981  0.373557  1
  O  O309  1  0.133688  0.789216  0.373592  1
  O  O310  1  0.037824  0.672994  0.373532  1
  O  O311  1  0.653954  0.672998  0.280219  1
  O  O312  1  0.037725  0.789216  0.373597  1
  O  O313  1  0.366029  0.923001  0.342112  1
  O  O314  1  0.249920  0.923000  0.342095  1
  O  O315  1  0.505458  0.997203  0.209127  1
  O  O316  1  0.249986  0.747211  0.412201  1
  O  O317  1  0.111743  0.885425  0.412234  1
  O  O318  1  0.388017  0.747241  0.301259  1
  O  O319  1  0.505460  0.747214  0.301224  1
  O  O320  1  0.867258  0.885428  0.412250  1
  O  O321  1  0.867379  0.747227  0.412180  1
  O  O322  1  0.249956  0.997222  0.303428  1
  O  O323  1  0.388027  0.997229  0.303449  1
  O  O324  1  0.632571  0.864609  0.506520  1
  O  O325  1  0.249852  0.752803  0.303490  1
  O  O326  1  0.111814  0.752787  0.414429  1
  O  O327  1  0.994391  0.752797  0.414436  1
  O  O328  1  0.632482  0.752813  0.303462  1
  O  O329  1  0.388055  0.864610  0.301215  1
  O  O330  1  0.749876  0.677196  0.230835  1
  O  O331  1  0.388953  0.933829  0.230799  1
  O  O332  1  0.110995  0.822846  0.484815  1
  O  O333  1  0.145591  0.927197  0.373173  1
  O  O334  1  0.493250  0.683820  0.289348  1
  O  O335  1  0.493179  0.822844  0.289368  1
  O  O336  1  0.749875  0.927178  0.484862  1
  O  O337  1  0.388989  0.683817  0.373146  1
  O  O338  1  0.145635  0.677177  0.426302  1
  O  O339  1  0.493239  0.933811  0.230816  1
  O  O340  1  0.388853  0.677181  0.230870  1
  O  O341  1  0.749973  0.822828  0.484813  1
  O  O342  1  0.388852  0.927180  0.373173  1
  O  O343  1  0.354195  0.822843  0.289369  1
  O  O344  1  0.006656  0.927169  0.484840  1
  O  O345  1  0.006670  0.677162  0.426279  1
  O  O346  1  0.006586  0.816193  0.426336  1
  O  O347  1  0.110858  0.816205  0.342536  1
  O  O348  1  0.499864  0.851838  0.357846  1
  O  O349  1  0.398104  0.101854  0.558712  1
  O  O350  1  0.398176  0.000000  0.558683  1
  O  O351  1  0.101674  -0.000000  0.558704  1
  O  O352  1  0.000000  0.898200  0.558675  1
  O  O353  1  0.101769  0.898193  0.558687  1
  O  O354  1  0.499965  0.898210  0.558673  1
  O  O355  1  0.898091  0.101844  0.558711  1
  O  O356  1  -0.000000  0.101835  0.558719  1
  O  O357  1  0.898193  0.000000  0.558690  1
  O  O358  1  0.499880  0.101821  0.558723  1
  O  O359  1  0.601669  0.000000  0.558712  1
  O  O360  1  0.601747  0.898175  0.558682  1
  Si  Si361  1  0.928134  0.124867  0.271680  1
  Si  Si362  1  0.660566  0.053158  0.444027  1
  Si  Si363  1  0.660552  0.303157  0.343453  1
  Si  Si364  1  0.338496  0.125208  0.200495  1
  Si  Si365  1  0.660661  0.286277  0.443964  1
  Si  Si366  1  0.928174  0.196930  0.300777  1
  Si  Si367  1  0.016724  0.286267  0.300815  1
  Si  Si368  1  0.927888  0.196934  0.372210  1
  Si  Si369  1  0.660684  0.036264  0.343424  1
  Si  Si370  1  0.660990  0.125224  0.414900  1
  Si  Si371  1  0.338564  0.036258  0.200470  1
  Si  Si372  1  0.338571  0.286253  0.443977  1
  Si  Si373  1  0.016796  0.196920  0.300767  1
  Si  Si374  1  0.838815  0.286267  0.300800  1
  Si  Si375  1  0.839282  0.196928  0.372213  1
  Si  Si376  1  0.838823  0.036269  0.343446  1
  Si  Si377  1  0.571722  0.125209  0.414876  1
  Si  Si378  1  0.571969  0.053123  0.515204  1
  Si  Si379  1  0.839175  0.213806  0.271701  1
  Si  Si380  1  0.838854  0.124861  0.343431  1
  Si  Si381  1  0.571664  0.303157  0.414891  1
  Si  Si382  1  0.483121  0.213807  0.414866  1
  Si  Si383  1  0.161350  0.124847  0.271653  1
  Si  Si384  1  0.571953  0.303131  0.343459  1
  Si  Si385  1  0.571694  0.053141  0.444002  1
  Si  Si386  1  0.483054  0.053151  0.515195  1
  Si  Si387  1  0.161281  0.213797  0.271697  1
  Si  Si388  1  0.572051  0.124862  0.343427  1
  Si  Si389  1  0.483034  0.303161  0.414908  1
  Si  Si390  1  0.661023  0.213815  0.414865  1
  Si  Si391  1  0.660556  0.553159  0.444025  1
  Si  Si392  1  0.928135  0.374867  0.300801  1
  Si  Si393  1  0.661036  0.463803  0.372232  1
  Si  Si394  1  0.928106  0.624882  0.271684  1
  Si  Si395  1  0.572077  0.624849  0.343407  1
  Si  Si396  1  0.338486  0.625216  0.200503  1
  Si  Si397  1  0.660984  0.375222  0.372234  1
  Si  Si398  1  0.338485  0.375212  0.444019  1
  Si  Si399  1  0.660684  0.536254  0.343416  1
  Si  Si400  1  0.660983  0.625220  0.414893  1
  Si  Si401  1  0.928178  0.446923  0.271668  1
  Si  Si402  1  0.338569  0.536259  0.200476  1
  Si  Si403  1  0.927801  0.375207  0.372253  1
  Si  Si404  1  0.571701  0.375222  0.443988  1
  Si  Si405  1  0.838815  0.536265  0.343440  1
  Si  Si406  1  0.571718  0.625200  0.414869  1
  Si  Si407  1  0.839305  0.446904  0.271644  1
  Si  Si408  1  0.838846  0.624857  0.343426  1
  Si  Si409  1  0.161355  0.624833  0.271650  1
  Si  Si410  1  0.839178  0.463809  0.372253  1
  Si  Si411  1  0.838868  0.374847  0.300778  1
  Si  Si412  1  0.571679  0.553144  0.444003  1
  Si  Si413  1  0.661014  0.713811  0.414856  1
  Si  Si414  1  0.928138  0.874867  0.300806  1
  Si  Si415  1  0.661042  0.963804  0.372233  1
  Si  Si416  1  0.660540  0.803176  0.343446  1
  Si  Si417  1  0.660655  0.786267  0.443957  1
  Si  Si418  1  0.660979  0.875228  0.372231  1
  Si  Si419  1  0.928160  0.696931  0.300781  1
  Si  Si420  1  0.016716  0.786257  0.300819  1
  Si  Si421  1  0.338496  0.875206  0.444003  1
  Si  Si422  1  0.927904  0.696902  0.372201  1
  Si  Si423  1  0.928183  0.946927  0.271674  1
  Si  Si424  1  0.338585  0.786246  0.443967  1
  Si  Si425  1  0.927783  0.875196  0.372262  1
  Si  Si426  1  0.016801  0.696903  0.300764  1
  Si  Si427  1  0.838811  0.786270  0.300801  1
  Si  Si428  1  0.571703  0.875214  0.443980  1
  Si  Si429  1  0.839278  0.696916  0.372212  1
  Si  Si430  1  0.839306  0.946911  0.271653  1
  Si  Si431  1  0.483121  0.963806  0.515171  1
  Si  Si432  1  0.161370  0.874832  0.515173  1
  Si  Si433  1  0.839161  0.713823  0.271700  1
  Si  Si434  1  0.571671  0.803154  0.414875  1
  Si  Si435  1  0.483147  0.713796  0.414846  1
  Si  Si436  1  0.571958  0.803139  0.343441  1
  Si  Si437  1  0.839188  0.963808  0.372255  1
  Si  Si438  1  0.838874  0.874846  0.300780  1
  Si  Si439  1  0.161281  0.963792  0.515189  1
  Si  Si440  1  0.572037  0.874857  0.515163  1
  Si  Si441  1  0.161272  0.713790  0.271703  1
  Si  Si442  1  0.483057  0.803152  0.414883  1
  Si  Si443  1  0.516728  0.036226  0.200494  1
  Si  Si444  1  0.160697  0.286227  0.443957  1
  Si  Si445  1  0.428203  0.196878  0.300778  1
  Si  Si446  1  0.516730  0.286233  0.300814  1
  Si  Si447  1  0.427899  0.196906  0.372220  1
  Si  Si448  1  0.160644  0.036250  0.343420  1
  Si  Si449  1  0.160981  0.125200  0.414886  1
  Si  Si450  1  0.427809  0.125173  0.200503  1
  Si  Si451  1  0.838574  0.286267  0.443967  1
  Si  Si452  1  0.516815  0.196880  0.300772  1
  Si  Si453  1  0.338866  0.286218  0.300793  1
  Si  Si454  1  0.339319  0.196870  0.372212  1
  Si  Si455  1  0.338812  0.036240  0.343432  1
  Si  Si456  1  0.071707  0.125188  0.414865  1
  Si  Si457  1  0.071944  0.053128  0.515203  1
  Si  Si458  1  0.339212  0.213764  0.271700  1
  Si  Si459  1  0.338880  0.124813  0.343431  1
  Si  Si460  1  0.071704  0.303111  0.414877  1
  Si  Si461  1  0.983135  0.213794  0.414847  1
  Si  Si462  1  0.661367  0.124827  0.271659  1
  Si  Si463  1  0.071961  0.303135  0.343454  1
  Si  Si464  1  0.071652  0.053134  0.444001  1
  Si  Si465  1  0.983037  0.053139  0.515195  1
  Si  Si466  1  0.661280  0.213786  0.271702  1
  Si  Si467  1  0.072049  0.124857  0.343411  1
  Si  Si468  1  0.983060  0.303143  0.414895  1
  Si  Si469  1  0.161048  0.213775  0.414859  1
  Si  Si470  1  0.428162  0.124819  0.271680  1
  Si  Si471  1  0.160591  0.303119  0.343443  1
  Si  Si472  1  0.160542  0.053139  0.444016  1
  Si  Si473  1  0.160563  0.553132  0.444010  1
  Si  Si474  1  0.516735  0.536244  0.200495  1
  Si  Si475  1  0.427901  0.446918  0.200463  1
  Si  Si476  1  0.161034  0.375174  0.372222  1
  Si  Si477  1  0.838501  0.375220  0.444012  1
  Si  Si478  1  0.160693  0.536227  0.343400  1
  Si  Si479  1  0.161000  0.625189  0.414877  1
  Si  Si480  1  0.428193  0.446892  0.271663  1
  Si  Si481  1  0.427796  0.625189  0.200511  1
  Si  Si482  1  0.516813  0.446894  0.200473  1
  Si  Si483  1  0.427797  0.375181  0.372253  1
  Si  Si484  1  0.071756  0.375165  0.443971  1
  Si  Si485  1  0.338832  0.536232  0.343435  1
  Si  Si486  1  0.071735  0.625170  0.414852  1
  Si  Si487  1  0.339315  0.446882  0.271640  1
  Si  Si488  1  0.338873  0.624819  0.343438  1
  Si  Si489  1  0.661371  0.624832  0.271647  1
  Si  Si490  1  0.339185  0.463776  0.372247  1
  Si  Si491  1  0.338898  0.374809  0.300762  1
  Si  Si492  1  0.071696  0.553111  0.443983  1
  Si  Si493  1  0.072065  0.624830  0.343403  1
  Si  Si494  1  0.428138  0.624836  0.271692  1
  Si  Si495  1  0.161066  0.463765  0.372209  1
  Si  Si496  1  0.428156  0.374829  0.300792  1
  Si  Si497  1  0.160998  0.963795  0.372234  1
  Si  Si498  1  0.428115  0.874840  0.300796  1
  Si  Si499  1  0.427875  0.946912  0.200462  1
  Si  Si500  1  0.160673  0.786236  0.443968  1
  Si  Si501  1  0.160960  0.875206  0.372251  1
  Si  Si502  1  0.428158  0.696909  0.300797  1
  Si  Si503  1  0.516723  0.786241  0.300803  1
  Si  Si504  1  0.838492  0.875193  0.444014  1
  Si  Si505  1  0.427910  0.696901  0.372212  1
  Si  Si506  1  0.428147  0.946904  0.271668  1
  Si  Si507  1  0.516795  0.946881  0.200468  1
  Si  Si508  1  0.838571  0.786237  0.443965  1
  Si  Si509  1  0.427795  0.875186  0.372241  1
  Si  Si510  1  0.516808  0.696887  0.300769  1
  Si  Si511  1  0.338791  0.786250  0.300824  1
  Si  Si512  1  0.071709  0.875176  0.443992  1
  Si  Si513  1  0.339296  0.696885  0.372224  1
  Si  Si514  1  0.339267  0.946894  0.271647  1
  Si  Si515  1  0.983135  0.963779  0.515176  1
  Si  Si516  1  0.661355  0.874820  0.515169  1
  Si  Si517  1  0.339164  0.713781  0.271722  1
  Si  Si518  1  0.071663  0.803118  0.414896  1
  Si  Si519  1  0.983129  0.713773  0.414846  1
  Si  Si520  1  0.071940  0.803125  0.343466  1
  Si  Si521  1  0.339164  0.963783  0.372244  1
  Si  Si522  1  0.338831  0.874837  0.300780  1
  Si  Si523  1  0.661279  0.963774  0.515196  1
  Si  Si524  1  0.072075  0.874839  0.515162  1
  Si  Si525  1  0.661280  0.713794  0.271686  1
  Si  Si526  1  0.983041  0.803128  0.414905  1
  Si  Si527  1  0.161041  0.713775  0.414863  1
  Si  Si528  1  0.160542  0.803134  0.343465  1
  H  H529  1  0.398104  0.101854  0.142205  1
  H  H530  1  0.398176  0.000000  0.142177  1
  H  H531  1  0.993197  0.072870  0.216055  1
  H  H532  1  0.610988  0.322877  0.499587  1
  H  H533  1  0.888855  0.177196  0.216077  1
  H  H534  1  0.249972  0.322854  0.499602  1
  H  H535  1  0.398092  0.601866  0.142214  1
  H  H536  1  0.398184  0.500035  0.142183  1
  H  H537  1  0.993165  0.572887  0.216060  1
  H  H538  1  0.888989  0.433833  0.216020  1
  H  H539  1  0.249865  0.427210  0.499639  1
  H  H540  1  0.993255  0.433847  0.216044  1
  H  H541  1  0.506651  0.427215  0.499610  1
  H  H542  1  0.610868  0.566231  0.499650  1
  H  H543  1  0.506592  0.566233  0.499631  1
  H  H544  1  0.499990  0.398220  0.142168  1
  H  H545  1  0.889000  0.933831  0.216026  1
  H  H546  1  0.993268  0.933841  0.216048  1
  H  H547  1  0.888840  0.677212  0.216076  1
  H  H548  1  0.499965  0.898210  0.142167  1
  H  H549  1  0.749876  0.177192  0.216074  1
  H  H550  1  0.111013  0.322841  0.499582  1
  H  H551  1  0.749984  0.072833  0.216038  1
  H  H552  1  0.749980  0.322858  0.499593  1
  H  H553  1  0.499880  0.101821  0.142217  1
  H  H554  1  0.601677  0.500023  0.142207  1
  H  H555  1  0.601762  0.398195  0.142178  1
  H  H556  1  0.749885  0.427208  0.499635  1
  H  H557  1  0.749988  0.572841  0.216023  1
  H  H558  1  0.006693  0.427163  0.499594  1
  H  H559  1  0.110864  0.566215  0.499639  1
  H  H560  1  0.006611  0.566196  0.499608  1
  H  H561  1  0.499862  0.601845  0.142226  1
  H  H562  1  0.601669  0.000000  0.142206  1
  H  H563  1  0.601747  0.898175  0.142176  1
  H  H564  1  0.749876  0.677196  0.216059  1
  H  H565  1  0.398104  0.101854  0.573488  1
  H  H566  1  0.398176  0.000000  0.573459  1
  H  H567  1  0.101674  0.000000  0.573480  1
  H  H568  1  0.000000  0.898200  0.573451  1
  H  H569  1  0.101769  0.898193  0.573463  1
  H  H570  1  0.499965  0.898210  0.573449  1
  H  H571  1  0.898091  0.101844  0.573487  1
  H  H572  1  0.000000  0.101835  0.573495  1
  H  H573  1  0.898193  0.000000  0.573466  1
  H  H574  1  0.499880  0.101821  0.573499  1
  H  H575  1  0.601669  0.000000  0.573489  1
  H  H576  1  0.601747  0.898175  0.573458  1
