# generated using pymatgen
data_Si6H2O13
_symmetry_space_group_name_H-M   'P 1'
_cell_length_a   19.80640796
_cell_length_b   19.84885801
_cell_length_c   33.26981124
_cell_angle_alpha   90.00000000
_cell_angle_beta   90.00000000
_cell_angle_gamma   90.00000000
_symmetry_Int_Tables_number   1
_chemical_formula_structural   Si6H2O13
_chemical_formula_sum   'Si48 H16 O104'
_cell_volume   13079.5132446
_cell_formula_units_Z   8
loop_
 _symmetry_equiv_pos_site_id
 _symmetry_equiv_pos_as_xyz
  1  'x, y, z'
loop_
 _atom_site_type_symbol
 _atom_site_label
 _atom_site_symmetry_multiplicity
 _atom_site_fract_x
 _atom_site_fract_y
 _atom_site_fract_z
 _atom_site_occupancy
  O  O1  1  0.488365  0.019083  0.276660  1
  O  O2  1  0.376780  0.012727  0.360089  1
  O  O3  1  0.441599  0.131633  0.296873  1
  O  O4  1  0.410663  0.056350  0.428719  1
  O  O5  1  0.366582  0.027576  0.287679  1
  O  O6  1  0.395373  0.134140  0.368246  1
  O  O7  1  0.071415  0.288580  0.307809  1
  O  O8  1  0.428982  0.071286  0.223193  1
  O  O9  1  0.288023  0.071751  0.393872  1
  O  O10  1  0.000000  0.177987  0.296982  1
  O  O11  1  0.079260  0.061477  0.388119  1
  O  O12  1  0.179063  0.090521  0.350986  1
  O  O13  1  0.080227  0.181681  0.353705  1
  O  O14  1  0.003474  0.078563  0.241442  1
  O  O15  1  0.475856  0.233096  0.347198  1
  O  O16  1  0.493117  0.023376  0.489896  1
  O  O17  1  0.063301  0.079971  0.313711  1
  O  O18  1  0.123097  0.513833  0.359846  1
  O  O19  1  0.019473  0.379093  0.342459  1
  O  O20  1  0.011373  0.520210  0.276261  1
  O  O21  1  0.089108  0.557764  0.428399  1
  O  O22  1  0.134988  0.408874  0.316082  1
  O  O23  1  0.058334  0.632953  0.296643  1
  O  O24  1  0.104490  0.635411  0.367939  1
  O  O25  1  0.031635  0.399523  0.269786  1
  O  O26  1  0.133124  0.528343  0.287533  1
  O  O27  1  0.211998  0.572470  0.393651  1
  O  O28  1  0.070920  0.571439  0.222895  1
  O  O29  1  0.428069  0.428750  0.521452  1
  O  O30  1  0.320960  0.590498  0.350973  1
  O  O31  1  0.408730  0.499569  0.456808  1
  O  O32  1  0.319144  0.496103  0.397203  1
  O  O33  1  0.496081  0.579419  0.242141  1
  O  O34  1  0.233235  0.496709  0.336138  1
  O  O35  1  0.003355  0.522728  0.489422  1
  O  O36  1  0.495089  0.477184  0.190911  1
  O  O37  1  0.420492  0.561416  0.388540  1
  O  O38  1  0.436492  0.579707  0.314293  1
  O  O39  1  0.440131  0.436356  0.397162  1
  O  O40  1  0.481931  0.877296  0.341172  1
  O  O41  1  0.364985  0.908261  0.316172  1
  O  O42  1  0.466993  0.898904  0.269161  1
  O  O43  1  0.071882  0.928572  0.522089  1
  O  O44  1  0.428061  0.788809  0.306956  1
  O  O45  1  0.180556  0.996503  0.397576  1
  O  O46  1  0.420639  0.681258  0.352620  1
  O  O47  1  0.266421  0.996167  0.336395  1
  O  O48  1  0.024907  0.735021  0.346872  1
  O  O49  1  0.003956  0.976145  0.189834  1
  O  O50  1  0.060769  0.936754  0.397401  1
  O  O51  1  0.499435  0.679226  0.296827  1
  O  O52  1  0.089051  0.000000  0.456780  1
  O  O53  1  0.516521  0.122695  0.358721  1
  O  O54  1  0.631771  0.088345  0.384223  1
  O  O55  1  0.530252  0.103045  0.430930  1
  O  O56  1  0.573179  0.210522  0.393141  1
  O  O57  1  0.927801  0.072409  0.177338  1
  O  O58  1  0.501763  0.319961  0.403061  1
  O  O59  1  0.910149  0.001235  0.242438  1
  O  O60  1  0.818626  0.003561  0.302198  1
  O  O61  1  0.578981  0.318248  0.347333  1
  O  O62  1  0.734129  0.004162  0.363829  1
  O  O63  1  0.977450  0.265493  0.353283  1
  O  O64  1  0.994516  0.023198  0.508330  1
  O  O65  1  0.937918  0.064356  0.302654  1
  O  O66  1  0.987173  0.482421  0.422413  1
  O  O67  1  0.876481  0.485814  0.339191  1
  O  O68  1  0.983123  0.623694  0.358158  1
  O  O69  1  0.942704  0.368546  0.402604  1
  O  O70  1  0.910436  0.443372  0.270337  1
  O  O71  1  0.867729  0.589780  0.383249  1
  O  O72  1  0.865327  0.470786  0.411532  1
  O  O73  1  0.898322  0.365097  0.330660  1
  O  O74  1  0.968480  0.603131  0.429953  1
  O  O75  1  0.928605  0.428248  0.476369  1
  O  O76  1  0.571664  0.572973  0.177631  1
  O  O77  1  0.788519  0.427001  0.306074  1
  O  O78  1  0.589058  0.501814  0.242967  1
  O  O79  1  0.679283  0.409728  0.348862  1
  O  O80  1  0.681063  0.503953  0.302360  1
  O  O81  1  0.504003  0.420732  0.457191  1
  O  O82  1  0.765892  0.504545  0.363684  1
  O  O83  1  0.994921  0.476422  0.208974  1
  O  O84  1  0.503179  0.522879  0.508361  1
  O  O85  1  0.565532  0.420773  0.386506  1
  O  O86  1  0.561859  0.565226  0.303289  1
  O  O87  1  0.578680  0.439955  0.312099  1
  O  O88  1  0.623532  0.985033  0.339487  1
  O  O89  1  0.514447  0.982272  0.423247  1
  O  O90  1  0.589137  0.941876  0.270829  1
  O  O91  1  0.557176  0.867624  0.402800  1
  O  O92  1  0.603259  0.864195  0.331428  1
  O  O93  1  0.635488  0.968558  0.411574  1
  O  O94  1  0.711558  0.926564  0.306200  1
  O  O95  1  0.928754  0.711922  0.392238  1
  O  O96  1  0.570489  0.927926  0.475973  1
  O  O97  1  0.821149  0.909728  0.348920  1
  O  O98  1  0.000000  0.821395  0.403080  1
  O  O99  1  0.995727  0.920859  0.457631  1
  O  O100  1  0.921978  0.819446  0.347012  1
  O  O101  1  0.505170  0.977070  0.209381  1
  O  O102  1  0.523093  0.765829  0.352910  1
  O  O103  1  0.920917  0.939483  0.311641  1
  O  O104  1  0.936079  0.920489  0.386088  1
  Si  Si105  1  0.428049  0.068203  0.270321  1
  Si  Si106  1  0.366142  0.071745  0.391202  1
  Si  Si107  1  0.032711  0.227799  0.328859  1
  Si  Si108  1  0.229567  0.038199  0.370006  1
  Si  Si109  1  0.453421  0.159340  0.340132  1
  Si  Si110  1  0.483075  0.044645  0.445650  1
  Si  Si111  1  0.101497  0.106991  0.351873  1
  Si  Si112  1  0.001774  0.100712  0.286639  1
  Si  Si113  1  0.133893  0.573013  0.390863  1
  Si  Si114  1  0.070276  0.368778  0.307281  1
  Si  Si115  1  0.071830  0.569295  0.270232  1
  Si  Si116  1  0.270254  0.538496  0.369804  1
  Si  Si117  1  0.461437  0.467690  0.485359  1
  Si  Si118  1  0.016151  0.544987  0.444748  1
  Si  Si119  1  0.158958  0.481399  0.322153  1
  Si  Si120  1  0.046264  0.660886  0.339908  1
  Si  Si121  1  0.394856  0.496792  0.411156  1
  Si  Si122  1  0.497856  0.601726  0.287520  1
  Si  Si123  1  0.398106  0.605994  0.352269  1
  Si  Si124  1  0.428802  0.868089  0.306246  1
  Si  Si125  1  0.036698  0.968090  0.486720  1
  Si  Si126  1  0.467691  0.729679  0.327933  1
  Si  Si127  1  0.340673  0.980686  0.322351  1
  Si  Si128  1  0.105082  0.997521  0.410920  1
  Si  Si129  1  0.568816  0.132660  0.393792  1
  Si  Si130  1  0.532707  0.267820  0.372049  1
  Si  Si131  1  0.962038  0.032478  0.211976  1
  Si  Si132  1  0.660202  0.016138  0.377087  1
  Si  Si133  1  0.894826  0.003626  0.288636  1
  Si  Si134  1  0.927866  0.432203  0.429209  1
  Si  Si135  1  0.866616  0.426963  0.308095  1
  Si  Si136  1  0.930661  0.633314  0.392989  1
  Si  Si137  1  0.537028  0.532974  0.212067  1
  Si  Si138  1  0.730901  0.462169  0.330185  1
  Si  Si139  1  0.957218  0.340383  0.359154  1
  Si  Si140  1  0.983331  0.457236  0.253647  1
  Si  Si141  1  0.839825  0.517313  0.376663  1
  Si  Si142  1  0.601406  0.394246  0.348177  1
  Si  Si143  1  0.604701  0.504338  0.289266  1
  Si  Si144  1  0.504606  0.397599  0.412199  1
  Si  Si145  1  0.633506  0.926038  0.308474  1
  Si  Si146  1  0.573319  0.930253  0.428903  1
  Si  Si147  1  0.769065  0.961819  0.330306  1
  Si  Si148  1  0.969080  0.770799  0.371668  1
  Si  Si149  1  0.516383  0.956164  0.253956  1
  Si  Si150  1  0.544901  0.839913  0.359668  1
  Si  Si151  1  0.996920  0.898342  0.412664  1
  Si  Si152  1  0.898670  0.894561  0.347826  1
  H  H153  1  0.428982  0.071286  0.196141  1
  H  H154  1  0.493117  0.023376  0.516947  1
  H  H155  1  0.070920  0.571439  0.195843  1
  H  H156  1  0.428069  0.428750  0.548503  1
  H  H157  1  0.003355  0.522728  0.516473  1
  H  H158  1  0.495089  0.477184  0.163860  1
  H  H159  1  0.071882  0.928572  0.549141  1
  H  H160  1  0.003956  0.976145  0.162783  1
  H  H161  1  0.927801  0.072409  0.150286  1
  H  H162  1  0.994516  0.023198  0.535382  1
  H  H163  1  0.928605  0.428248  0.503420  1
  H  H164  1  0.571664  0.572973  0.150580  1
  H  H165  1  0.994921  0.476422  0.181922  1
  H  H166  1  0.503179  0.522879  0.535413  1
  H  H167  1  0.570489  0.927926  0.503024  1
  H  H168  1  0.505170  0.977070  0.182329  1
