# generated using pymatgen
data_Si55H18O119
_symmetry_space_group_name_H-M   'P 1'
_cell_length_a   14.20306309
_cell_length_b   35.25439057
_cell_length_c   52.74898009
_cell_angle_alpha   90.00000000
_cell_angle_beta   45.05152913
_cell_angle_gamma   78.35781339
_symmetry_Int_Tables_number   1
_chemical_formula_structural   Si55H18O119
_chemical_formula_sum   'Si110 H36 O238'
_cell_volume   17917.2559313
_cell_formula_units_Z   2
loop_
 _symmetry_equiv_pos_site_id
 _symmetry_equiv_pos_as_xyz
  1  'x, y, z'
loop_
 _atom_site_type_symbol
 _atom_site_label
 _atom_site_symmetry_multiplicity
 _atom_site_fract_x
 _atom_site_fract_y
 _atom_site_fract_z
 _atom_site_occupancy
  O  O1  1  0.849964  0.900067  0.153919  1
  O  O2  1  0.348831  0.901186  0.154126  1
  O  O3  1  0.920619  0.078934  0.224366  1
  O  O4  1  0.421610  0.078908  0.341722  1
  O  O5  1  0.728896  0.078968  0.224468  1
  O  O6  1  0.613305  0.079002  0.341605  1
  O  O7  1  0.910462  0.133390  0.258172  1
  O  O8  1  0.322863  0.133322  0.328622  1
  O  O9  1  0.507593  0.133824  0.258528  1
  O  O10  1  0.724787  0.133894  0.328450  1
  O  O11  1  0.034010  0.063530  0.245850  1
  O  O12  1  0.339069  0.063464  0.314375  1
  O  O13  1  0.516280  0.064614  0.245972  1
  O  O14  1  0.854578  0.064687  0.314670  1
  O  O15  1  0.151204  0.098814  0.191719  1
  O  O16  1  0.650085  0.099927  0.191923  1
  O  O17  1  0.307160  0.037134  0.275290  1
  O  O18  1  0.118642  0.037113  0.274887  1
  O  O19  1  0.996489  -0.000000  0.269366  1
  O  O20  1  0.816435  0.018470  0.239126  1
  O  O21  1  0.646763  0.018475  0.303946  1
  O  O22  1  0.670038  0.079999  0.283238  1
  O  O23  1  0.748163  0.248425  0.221415  1
  O  O24  1  0.254954  0.248461  0.218983  1
  O  O25  1  0.244993  0.251562  0.315992  1
  O  O26  1  0.751776  0.251642  0.315831  1
  O  O27  1  0.669657  0.261738  0.283408  1
  O  O28  1  0.306884  0.261658  0.352256  1
  O  O29  1  0.487679  0.261451  0.283670  1
  O  O30  1  0.489287  0.261530  0.351909  1
  O  O31  1  0.010796  0.238412  0.347948  1
  O  O32  1  0.012272  0.238526  0.278870  1
  O  O33  1  0.192357  0.238420  0.278923  1
  O  O34  1  0.830787  0.238450  0.347879  1
  O  O35  1  0.622697  0.316822  0.256068  1
  O  O36  1  0.243290  0.316847  0.210325  1
  O  O37  1  0.256353  0.183169  0.303031  1
  O  O38  1  0.877333  0.183247  0.302717  1
  O  O39  1  0.410881  0.196712  0.305861  1
  O  O40  1  0.695643  0.196793  0.305071  1
  O  O41  1  0.805410  0.303276  0.189300  1
  O  O42  1  0.088299  0.303324  0.271951  1
  O  O43  1  0.887552  0.420965  0.194326  1
  O  O44  1  0.770652  0.421141  0.311740  1
  O  O45  1  0.078903  0.421005  0.311746  1
  O  O46  1  0.579149  0.421176  0.194367  1
  O  O47  1  0.774054  0.366551  0.224104  1
  O  O48  1  0.991841  0.366319  0.261349  1
  O  O49  1  0.176373  0.366625  0.261257  1
  O  O50  1  0.590442  0.366292  0.223816  1
  O  O51  1  0.645864  0.436382  0.258869  1
  O  O52  1  0.982925  0.435658  0.252382  1
  O  O53  1  0.161109  0.436455  0.253063  1
  O  O54  1  0.464847  0.435552  0.259281  1
  O  O55  1  0.848204  0.400695  0.249379  1
  O  O56  1  0.349333  0.400689  0.248936  1
  O  O57  1  0.382285  0.462918  0.320027  1
  O  O58  1  0.192796  0.462849  0.201908  1
  O  O59  1  0.853896  0.481529  0.359663  1
  O  O60  1  0.683543  0.481574  0.359651  1
  O  O61  1  0.830088  0.420022  0.347955  1
  O  O62  1  0.112990  0.578833  0.341746  1
  O  O63  1  0.229645  0.578967  0.224383  1
  O  O64  1  0.921516  0.578853  0.224385  1
  O  O65  1  0.420982  0.579000  0.341786  1
  O  O66  1  0.223966  0.633770  0.312383  1
  O  O67  1  0.007668  0.633512  0.274725  1
  O  O68  1  0.823172  0.633823  0.274647  1
  O  O69  1  0.409342  0.633481  0.312098  1
  O  O70  1  0.354331  0.564569  0.276809  1
  O  O71  1  0.018221  0.563817  0.283215  1
  O  O72  1  0.835626  0.564637  0.283915  1
  O  O73  1  0.534079  0.563716  0.277202  1
  O  O74  1  0.149513  0.599437  0.287189  1
  O  O75  1  0.650628  0.599439  0.286748  1
  O  O76  1  0.618526  0.537110  0.216045  1
  O  O77  1  0.808195  0.537038  0.334123  1
  O  O78  1  0.496807  0.500073  0.268084  1
  O  O79  1  0.997564  0.500216  0.267829  1
  O  O80  1  0.754830  0.748397  0.220212  1
  O  O81  1  0.248586  0.748472  0.220136  1
  O  O82  1  0.251685  0.751599  0.314659  1
  O  O83  1  0.745396  0.751636  0.317118  1
  O  O84  1  0.989041  0.761651  0.188193  1
  O  O85  1  0.987884  0.761730  0.257189  1
  O  O86  1  0.807704  0.761599  0.257210  1
  O  O87  1  0.169361  0.761652  0.188143  1
  O  O88  1  0.331372  0.738534  0.252428  1
  O  O89  1  0.691836  0.738491  0.184149  1
  O  O90  1  0.512397  0.738217  0.252643  1
  O  O91  1  0.511299  0.738332  0.183839  1
  O  O92  1  0.742851  0.816816  0.233340  1
  O  O93  1  0.123715  0.816884  0.233028  1
  O  O94  1  0.376551  0.683176  0.280064  1
  O  O95  1  0.756955  0.683218  0.325695  1
  O  O96  1  0.194650  0.696799  0.346835  1
  O  O97  1  0.912269  0.696823  0.264102  1
  O  O98  1  0.587085  0.803207  0.231010  1
  O  O99  1  0.306585  0.803289  0.230227  1
  O  O100  1  0.078853  0.921104  0.311593  1
  O  O101  1  0.579052  0.921070  0.194465  1
  O  O102  1  0.269989  0.921126  0.311708  1
  O  O103  1  0.387914  0.921159  0.194328  1
  O  O104  1  0.091640  0.866204  0.277537  1
  O  O105  1  0.676114  0.866133  0.207622  1
  O  O106  1  0.491872  0.866623  0.277904  1
  O  O107  1  0.274983  0.866691  0.207434  1
  O  O108  1  0.964857  0.935363  0.290088  1
  O  O109  1  0.664566  0.935295  0.221390  1
  O  O110  1  0.481056  0.936447  0.290209  1
  O  O111  1  0.146140  0.936511  0.221689  1
  O  O112  1  0.849964  0.900067  0.344141  1
  O  O113  1  0.348831  0.901186  0.344349  1
  O  O114  1  0.691774  0.962948  0.261179  1
  O  O115  1  0.882419  0.962926  0.260776  1
  O  O116  1  0.182929  0.981587  0.296937  1
  O  O117  1  0.354027  0.981587  0.232114  1
  O  O118  1  0.329979  0.920063  0.252823  1
  O  O119  1  0.503360  -0.000000  0.266694  1
  O  O120  1  0.920619  0.078934  0.414589  1
  O  O121  1  0.421610  0.078908  0.531945  1
  O  O122  1  0.728896  0.078968  0.414690  1
  O  O123  1  0.613305  0.079002  0.531827  1
  O  O124  1  0.910462  0.133390  0.448394  1
  O  O125  1  0.322863  0.133322  0.518844  1
  O  O126  1  0.507593  0.133824  0.448751  1
  O  O127  1  0.724787  0.133894  0.518672  1
  O  O128  1  0.034010  0.063530  0.436072  1
  O  O129  1  0.339069  0.063464  0.504598  1
  O  O130  1  0.516280  0.064614  0.436194  1
  O  O131  1  0.854578  0.064687  0.504893  1
  O  O132  1  0.151204  0.098814  0.381941  1
  O  O133  1  0.650085  0.099927  0.382146  1
  O  O134  1  0.307160  0.037134  0.465513  1
  O  O135  1  0.118642  0.037113  0.465109  1
  O  O136  1  0.996489  -0.000000  0.459589  1
  O  O137  1  0.816435  0.018470  0.429349  1
  O  O138  1  0.646763  0.018475  0.494168  1
  O  O139  1  0.670038  0.079999  0.473460  1
  O  O140  1  0.748163  0.248425  0.411637  1
  O  O141  1  0.254954  0.248461  0.409206  1
  O  O142  1  0.244993  0.251562  0.506214  1
  O  O143  1  0.751776  0.251642  0.506054  1
  O  O144  1  0.669657  0.261738  0.473630  1
  O  O145  1  0.306884  0.261658  0.542479  1
  O  O146  1  0.487679  0.261451  0.473893  1
  O  O147  1  0.489287  0.261530  0.542132  1
  O  O148  1  0.010796  0.238412  0.538170  1
  O  O149  1  0.012272  0.238526  0.469092  1
  O  O150  1  0.192357  0.238420  0.469145  1
  O  O151  1  0.830787  0.238450  0.538101  1
  O  O152  1  0.622697  0.316822  0.446291  1
  O  O153  1  0.243290  0.316847  0.400548  1
  O  O154  1  0.256353  0.183169  0.493253  1
  O  O155  1  0.877333  0.183247  0.492939  1
  O  O156  1  0.410881  0.196712  0.496083  1
  O  O157  1  0.695643  0.196793  0.495294  1
  O  O158  1  0.805410  0.303276  0.379522  1
  O  O159  1  0.088299  0.303324  0.462174  1
  O  O160  1  0.887552  0.420965  0.384549  1
  O  O161  1  0.770652  0.421141  0.501962  1
  O  O162  1  0.078903  0.421005  0.501969  1
  O  O163  1  0.579149  0.421176  0.384590  1
  O  O164  1  0.774054  0.366551  0.414327  1
  O  O165  1  0.991841  0.366319  0.451571  1
  O  O166  1  0.176373  0.366625  0.451479  1
  O  O167  1  0.590442  0.366292  0.414039  1
  O  O168  1  0.645864  0.436382  0.449091  1
  O  O169  1  0.982925  0.435658  0.442605  1
  O  O170  1  0.161109  0.436455  0.443285  1
  O  O171  1  0.464847  0.435552  0.449503  1
  O  O172  1  0.848204  0.400695  0.439602  1
  O  O173  1  0.349333  0.400689  0.439158  1
  O  O174  1  0.382285  0.462918  0.510250  1
  O  O175  1  0.192796  0.462849  0.392130  1
  O  O176  1  0.112990  0.578833  0.531969  1
  O  O177  1  0.229645  0.578967  0.414605  1
  O  O178  1  0.921516  0.578853  0.414607  1
  O  O179  1  0.420982  0.579000  0.532009  1
  O  O180  1  0.223966  0.633770  0.502605  1
  O  O181  1  0.007668  0.633512  0.464948  1
  O  O182  1  0.823172  0.633823  0.464870  1
  O  O183  1  0.409342  0.633481  0.502321  1
  O  O184  1  0.354331  0.564569  0.467032  1
  O  O185  1  0.018221  0.563817  0.473438  1
  O  O186  1  0.835626  0.564637  0.474137  1
  O  O187  1  0.534079  0.563716  0.467424  1
  O  O188  1  0.149513  0.599437  0.477412  1
  O  O189  1  0.650628  0.599439  0.476970  1
  O  O190  1  0.618526  0.537110  0.406267  1
  O  O191  1  0.808195  0.537038  0.524346  1
  O  O192  1  0.496807  0.500073  0.458306  1
  O  O193  1  0.997564  0.500216  0.458052  1
  O  O194  1  0.146660  0.518426  0.366679  1
  O  O195  1  0.317093  0.518449  0.366664  1
  O  O196  1  0.170214  0.579959  0.378385  1
  O  O197  1  0.754830  0.748397  0.410435  1
  O  O198  1  0.248586  0.748472  0.410358  1
  O  O199  1  0.251685  0.751599  0.504881  1
  O  O200  1  0.745396  0.751636  0.507340  1
  O  O201  1  0.989041  0.761651  0.378416  1
  O  O202  1  0.987884  0.761730  0.447412  1
  O  O203  1  0.807704  0.761599  0.447433  1
  O  O204  1  0.169361  0.761652  0.378366  1
  O  O205  1  0.331372  0.738534  0.442651  1
  O  O206  1  0.691836  0.738491  0.374372  1
  O  O207  1  0.512397  0.738217  0.442865  1
  O  O208  1  0.511299  0.738332  0.374062  1
  O  O209  1  0.742851  0.816816  0.423563  1
  O  O210  1  0.123715  0.816884  0.423250  1
  O  O211  1  0.376551  0.683176  0.470286  1
  O  O212  1  0.756955  0.683218  0.515918  1
  O  O213  1  0.194650  0.696799  0.537057  1
  O  O214  1  0.912269  0.696823  0.454325  1
  O  O215  1  0.587085  0.803207  0.421233  1
  O  O216  1  0.306585  0.803289  0.420449  1
  O  O217  1  0.078853  0.921104  0.501816  1
  O  O218  1  0.579052  0.921070  0.384688  1
  O  O219  1  0.269989  0.921126  0.501931  1
  O  O220  1  0.387914  0.921159  0.384551  1
  O  O221  1  0.091640  0.866204  0.467760  1
  O  O222  1  0.676114  0.866133  0.397845  1
  O  O223  1  0.491872  0.866623  0.468127  1
  O  O224  1  0.274983  0.866691  0.397656  1
  O  O225  1  0.964857  0.935363  0.480310  1
  O  O226  1  0.664566  0.935295  0.411612  1
  O  O227  1  0.481056  0.936447  0.480431  1
  O  O228  1  0.146140  0.936511  0.411912  1
  O  O229  1  0.849964  0.900067  0.534364  1
  O  O230  1  0.348831  0.901186  0.534572  1
  O  O231  1  0.691774  0.962948  0.451402  1
  O  O232  1  0.882419  0.962926  0.450999  1
  O  O233  1  0.182929  0.981587  0.487160  1
  O  O234  1  0.354027  0.981587  0.422336  1
  O  O235  1  0.329979  0.920063  0.443046  1
  O  O236  1  0.503360  0.000000  0.456916  1
  O  O237  1  0.151204  0.098814  0.572164  1
  O  O238  1  0.650085  0.099927  0.572368  1
  Si  Si239  1  0.237086  0.012947  0.270491  1
  Si  Si240  1  0.008579  0.093906  0.228178  1
  Si  Si241  1  0.303686  0.093851  0.343611  1
  Si  Si242  1  0.605970  0.094507  0.228339  1
  Si  Si243  1  0.705075  0.094563  0.343663  1
  Si  Si244  1  0.413659  0.041959  0.275813  1
  Si  Si245  1  0.002450  0.041995  0.276214  1
  Si  Si246  1  0.378379  0.159323  0.298607  1
  Si  Si247  1  0.802980  0.159401  0.298076  1
  Si  Si248  1  0.792013  0.065080  0.239551  1
  Si  Si249  1  0.577953  0.065085  0.321250  1
  Si  Si250  1  0.626738  0.272428  0.263100  1
  Si  Si251  1  0.171496  0.227567  0.311397  1
  Si  Si252  1  0.873323  0.227644  0.311275  1
  Si  Si253  1  0.363022  0.244468  0.314771  1
  Si  Si254  1  0.647930  0.244552  0.314351  1
  Si  Si255  1  0.136529  0.255564  0.262666  1
  Si  Si256  1  0.794295  0.405920  0.231548  1
  Si  Si257  1  0.893232  0.405767  0.268820  1
  Si  Si258  1  0.196462  0.405970  0.268788  1
  Si  Si259  1  0.491471  0.405729  0.231410  1
  Si  Si260  1  0.496555  0.458070  0.277153  1
  Si  Si261  1  0.086309  0.458105  0.242978  1
  Si  Si262  1  0.697474  0.340667  0.223144  1
  Si  Si263  1  0.120851  0.340707  0.252318  1
  Si  Si264  1  0.922647  0.434906  0.350779  1
  Si  Si265  1  0.707789  0.434977  0.350810  1
  Si  Si266  1  0.263299  0.487077  0.360694  1
  Si  Si267  1  0.204592  0.594317  0.304727  1
  Si  Si268  1  0.106284  0.594138  0.267318  1
  Si  Si269  1  0.802881  0.594389  0.267298  1
  Si  Si270  1  0.508322  0.594133  0.304593  1
  Si  Si271  1  0.502446  0.542034  0.258927  1
  Si  Si272  1  0.912562  0.542066  0.293153  1
  Si  Si273  1  0.301927  0.659374  0.313024  1
  Si  Si274  1  0.879172  0.659406  0.283685  1
  Si  Si275  1  0.828359  0.772435  0.224769  1
  Si  Si276  1  0.127016  0.772502  0.224708  1
  Si  Si277  1  0.373356  0.727554  0.272986  1
  Si  Si278  1  0.671685  0.727599  0.349648  1
  Si  Si279  1  0.147462  0.744561  0.355664  1
  Si  Si280  1  0.863760  0.744584  0.273433  1
  Si  Si281  1  0.636061  0.755445  0.221713  1
  Si  Si282  1  0.353195  0.755529  0.221335  1
  Si  Si283  1  0.991791  0.905500  0.307753  1
  Si  Si284  1  0.697312  0.905441  0.192369  1
  Si  Si285  1  0.392995  0.906127  0.307871  1
  Si  Si286  1  0.294827  0.906182  0.192479  1
  Si  Si287  1  0.587428  0.958002  0.259877  1
  Si  Si288  1  0.996594  0.958035  0.260220  1
  Si  Si289  1  0.620168  0.840627  0.238003  1
  Si  Si290  1  0.198693  0.840702  0.237450  1
  Si  Si291  1  0.207288  0.934979  0.296509  1
  Si  Si292  1  0.422896  0.934979  0.214812  1
  Si  Si293  1  0.762941  0.987112  0.265573  1
  Si  Si294  1  0.237086  0.012947  0.460713  1
  Si  Si295  1  0.008579  0.093906  0.418400  1
  Si  Si296  1  0.303686  0.093851  0.533833  1
  Si  Si297  1  0.605970  0.094507  0.418561  1
  Si  Si298  1  0.705075  0.094563  0.533885  1
  Si  Si299  1  0.413659  0.041959  0.466035  1
  Si  Si300  1  0.002450  0.041995  0.466437  1
  Si  Si301  1  0.378379  0.159323  0.488829  1
  Si  Si302  1  0.802980  0.159401  0.488299  1
  Si  Si303  1  0.792013  0.065080  0.429774  1
  Si  Si304  1  0.577953  0.065085  0.511472  1
  Si  Si305  1  0.626738  0.272428  0.453322  1
  Si  Si306  1  0.328293  0.272445  0.376641  1
  Si  Si307  1  0.171496  0.227567  0.501619  1
  Si  Si308  1  0.873323  0.227644  0.501497  1
  Si  Si309  1  0.363022  0.244468  0.504993  1
  Si  Si310  1  0.647930  0.244552  0.504574  1
  Si  Si311  1  0.852464  0.255515  0.370651  1
  Si  Si312  1  0.136529  0.255564  0.452889  1
  Si  Si313  1  0.794295  0.405920  0.421770  1
  Si  Si314  1  0.893232  0.405767  0.459043  1
  Si  Si315  1  0.196462  0.405970  0.459011  1
  Si  Si316  1  0.491471  0.405729  0.421633  1
  Si  Si317  1  0.496555  0.458070  0.467375  1
  Si  Si318  1  0.086309  0.458105  0.433200  1
  Si  Si319  1  0.697474  0.340667  0.413366  1
  Si  Si320  1  0.120851  0.340707  0.442541  1
  Si  Si321  1  0.204592  0.594317  0.494950  1
  Si  Si322  1  0.106284  0.594138  0.457541  1
  Si  Si323  1  0.802881  0.594389  0.457521  1
  Si  Si324  1  0.508322  0.594133  0.494815  1
  Si  Si325  1  0.502446  0.542034  0.449150  1
  Si  Si326  1  0.912562  0.542066  0.483376  1
  Si  Si327  1  0.301927  0.659374  0.503246  1
  Si  Si328  1  0.879172  0.659406  0.473908  1
  Si  Si329  1  0.077754  0.565024  0.375569  1
  Si  Si330  1  0.292591  0.565068  0.375526  1
  Si  Si331  1  0.737441  0.512911  0.365612  1
  Si  Si332  1  0.828359  0.772435  0.414992  1
  Si  Si333  1  0.127016  0.772502  0.414931  1
  Si  Si334  1  0.373356  0.727554  0.463208  1
  Si  Si335  1  0.863760  0.744584  0.463656  1
  Si  Si336  1  0.636061  0.755445  0.411936  1
  Si  Si337  1  0.353195  0.755529  0.411557  1
  Si  Si338  1  0.991791  0.905500  0.497976  1
  Si  Si339  1  0.697312  0.905441  0.382592  1
  Si  Si340  1  0.392995  0.906127  0.498094  1
  Si  Si341  1  0.294827  0.906182  0.382701  1
  Si  Si342  1  0.587428  0.958002  0.450099  1
  Si  Si343  1  0.996594  0.958035  0.450442  1
  Si  Si344  1  0.620168  0.840627  0.428225  1
  Si  Si345  1  0.198693  0.840702  0.427672  1
  Si  Si346  1  0.207288  0.934979  0.486731  1
  Si  Si347  1  0.422896  0.934979  0.405034  1
  Si  Si348  1  0.762941  0.987112  0.455795  1
  H  H349  1  0.849964  0.900067  0.136857  1
  H  H350  1  0.348831  0.901186  0.137065  1
  H  H351  1  0.151204  0.098814  0.174657  1
  H  H352  1  0.650085  0.099927  0.174861  1
  H  H353  1  0.748163  0.248425  0.204353  1
  H  H354  1  0.254954  0.248461  0.201921  1
  H  H355  1  0.243290  0.316847  0.193263  1
  H  H356  1  0.805410  0.303276  0.172238  1
  H  H357  1  0.887552  0.420965  0.177264  1
  H  H358  1  0.579149  0.421176  0.177305  1
  H  H359  1  0.192796  0.462849  0.184846  1
  H  H360  1  0.229645  0.578967  0.207321  1
  H  H361  1  0.921516  0.578853  0.207323  1
  H  H362  1  0.618526  0.537110  0.198983  1
  H  H363  1  0.989041  0.761651  0.171131  1
  H  H364  1  0.169361  0.761652  0.171081  1
  H  H365  1  0.691836  0.738491  0.167087  1
  H  H366  1  0.511299  0.738332  0.166777  1
  H  H367  1  0.306884  0.261658  0.559541  1
  H  H368  1  0.489287  0.261530  0.559194  1
  H  H369  1  0.010796  0.238412  0.555232  1
  H  H370  1  0.830787  0.238450  0.555163  1
  H  H371  1  0.770652  0.421141  0.519024  1
  H  H372  1  0.078903  0.421005  0.519031  1
  H  H373  1  0.382285  0.462918  0.527312  1
  H  H374  1  0.112990  0.578833  0.549031  1
  H  H375  1  0.420982  0.579000  0.549071  1
  H  H376  1  0.808195  0.537038  0.541408  1
  H  H377  1  0.251685  0.751599  0.521943  1
  H  H378  1  0.745396  0.751636  0.524402  1
  H  H379  1  0.756955  0.683218  0.532980  1
  H  H380  1  0.194650  0.696799  0.554119  1
  H  H381  1  0.849964  0.900067  0.551426  1
  H  H382  1  0.348831  0.901186  0.551634  1
  H  H383  1  0.151204  0.098814  0.589226  1
  H  H384  1  0.650085  0.099927  0.589430  1
